0
                    3D
 Schrodinger Suite 2023-1.
 75 81  0  0  1  0            999 V2000
   -6.8378    7.2848    3.0020 C   0  0  0  0  0  0
   -6.9867    6.5454    4.2092 O   0  0  0  0  0  0
   -6.6109    5.2159    4.2411 C   0  0  0  0  0  0
   -6.7772    4.5589    5.4615 C   0  0  0  0  0  0
   -6.4251    3.1976    5.6105 C   0  0  0  0  0  0
   -6.5733    2.4907    6.8278 C   0  0  0  0  0  0
   -6.2051    1.1487    6.9065 C   0  0  0  0  0  0
   -5.6900    0.4815    5.7967 C   0  0  0  0  0  0
   -5.5271    1.1414    4.5719 C   0  0  0  0  0  0
   -5.8974    2.5084    4.4863 C   0  0  0  0  0  0
   -5.7227    3.1640    3.2425 C   0  0  0  0  0  0
   -6.0855    4.5139    3.1432 C   0  0  0  0  0  0
   -5.1551    2.4527    2.0276 C   0  0  0  0  0  0
   -4.9939    3.0281    0.9459 O   0  0  0  0  0  0
   -4.8311    1.1283    2.2351 N   0  0  0  0  0  0
   -4.9666    0.3806    3.3861 C   0  0  0  0  0  0
   -4.6604   -0.8149    3.4575 O   0  0  0  0  0  0
   -4.2863    0.3919    1.0569 C   0  0  0  0  0  0
   -2.7465    0.2043    1.0534 C   0  0  0  0  0  0
   -1.9606    1.5227    0.9299 C   0  0  0  0  0  0
   -0.4374    1.2761    0.9640 C   0  0  0  0  0  0
   -0.0024    0.3213   -0.0704 N   0  0  2  0  0  0
   -0.7717   -0.9368   -0.0788 C   0  0  0  0  0  0
   -2.2933   -0.6816   -0.1184 C   0  0  0  0  0  0
    1.4510    0.1175    0.0124 C   0  0  0  0  0  0
    2.0727   -0.7053   -1.1474 C   0  0  2  0  0  0
    3.6075   -0.8029   -1.0437 C   0  0  0  0  0  0
    4.1790    0.5025   -1.0919 O   0  0  0  0  0  0
    5.5521    0.6369   -1.0639 C   0  0  0  0  0  0
    6.4771   -0.4096   -0.9454 C   0  0  0  0  0  0
    7.8464   -0.1591   -0.9311 C   0  0  0  0  0  0
    8.3616    1.1329   -1.0330 C   0  0  0  0  0  0
    7.4410    2.1799   -1.1503 C   0  0  0  0  0  0
    6.0376    1.9547   -1.1659 C   0  0  0  0  0  0
    5.4101    3.2133   -1.2931 C   0  0  0  0  0  0
    4.0648    3.6165   -1.3603 C   0  0  0  0  0  0
    3.7765    4.9737   -1.4912 C   0  0  0  0  0  0
    4.7942    5.9221   -1.5568 C   0  0  0  0  0  0
    6.1409    5.5618   -1.4934 C   0  0  0  0  0  0
    6.4310    4.1989   -1.3595 C   0  0  0  0  0  0
    7.6409    3.5409   -1.2687 N   0  0  0  0  0  0
    1.7342   -0.1626   -2.4122 O   0  0  0  0  0  0
    8.5446    3.9909   -1.2872 H   0  0  0  0  0  0
   -7.1766    8.3082    3.1631 H   0  0  0  0  0  0
   -7.4399    6.8612    2.1968 H   0  0  0  0  0  0
   -5.7946    7.3291    2.6853 H   0  0  0  0  0  0
   -7.1802    5.0928    6.3105 H   0  0  0  0  0  0
   -6.9719    2.9974    7.6950 H   0  0  0  0  0  0
   -6.3208    0.6175    7.8397 H   0  0  0  0  0  0
   -5.4191   -0.5594    5.9046 H   0  0  0  0  0  0
   -5.9555    5.0222    2.1992 H   0  0  0  0  0  0
   -4.7638   -0.5884    0.9993 H   0  0  0  0  0  0
   -4.5816    0.8600    0.1162 H   0  0  0  0  0  0
   -2.4402   -0.2966    1.9738 H   0  0  0  0  0  0
   -2.2395    2.0745    0.0306 H   0  0  0  0  0  0
   -2.2358    2.1938    1.7437 H   0  0  0  0  0  0
    0.0902    2.2210    0.8249 H   0  0  0  0  0  0
   -0.1413    0.9013    1.9458 H   0  0  0  0  0  0
   -0.4895   -1.5409   -0.9406 H   0  0  0  0  0  0
   -0.5100   -1.5190    0.8066 H   0  0  0  0  0  0
   -2.8208   -1.6354   -0.0762 H   0  0  0  0  0  0
   -2.5895   -0.2618   -1.0815 H   0  0  0  0  0  0
    1.9429    1.0912    0.0481 H   0  0  0  0  0  0
    1.6826   -0.3712    0.9605 H   0  0  0  0  0  0
    1.6927   -1.7264   -1.1108 H   0  0  0  0  0  0
    3.8804   -1.2858   -0.1033 H   0  0  0  0  0  0
    3.9964   -1.4177   -1.8584 H   0  0  0  0  0  0
    6.1455   -1.4334   -0.8625 H   0  0  0  0  0  0
    8.5300   -0.9903   -0.8394 H   0  0  0  0  0  0
    9.4274    1.3078   -1.0214 H   0  0  0  0  0  0
    3.2613    2.8964   -1.3123 H   0  0  0  0  0  0
    2.7467    5.2953   -1.5430 H   0  0  0  0  0  0
    4.5336    6.9652   -1.6595 H   0  0  0  0  0  0
    6.9189    6.3093   -1.5459 H   0  0  0  0  0  0
    2.0835    0.7303   -2.4616 H   0  0  0  0  0  0
  1  2  1  0  0  0
  1 44  1  0  0  0
  1 45  1  0  0  0
  1 46  1  0  0  0
  2  3  1  0  0  0
  3 12  1  0  0  0
  3  4  2  0  0  0
  4  5  1  0  0  0
  4 47  1  0  0  0
  5 10  2  0  0  0
  5  6  1  0  0  0
  6  7  2  0  0  0
  6 48  1  0  0  0
  7  8  1  0  0  0
  7 49  1  0  0  0
  8  9  2  0  0  0
  8 50  1  0  0  0
  9 16  1  0  0  0
  9 10  1  0  0  0
 10 11  1  0  0  0
 11 12  2  0  0  0
 11 13  1  0  0  0
 12 51  1  0  0  0
 13 14  2  0  0  0
 13 15  1  0  0  0
 15 16  1  0  0  0
 15 18  1  0  0  0
 16 17  2  0  0  0
 18 19  1  0  0  0
 18 52  1  0  0  0
 18 53  1  0  0  0
 19 24  1  0  0  0
 19 20  1  0  0  0
 19 54  1  0  0  0
 20 21  1  0  0  0
 20 55  1  0  0  0
 20 56  1  0  0  0
 21 22  1  0  0  0
 21 57  1  0  0  0
 21 58  1  0  0  0
 22 23  1  0  0  0
 22 25  1  0  0  0
 23 24  1  0  0  0
 23 59  1  0  0  0
 23 60  1  0  0  0
 24 61  1  0  0  0
 24 62  1  0  0  0
 25 26  1  0  0  0
 25 63  1  0  0  0
 25 64  1  0  0  0
 26 27  1  0  0  0
 26 42  1  0  0  0
 26 65  1  0  0  0
 27 28  1  0  0  0
 27 66  1  0  0  0
 27 67  1  0  0  0
 28 29  1  0  0  0
 29 34  1  0  0  0
 29 30  2  0  0  0
 30 31  1  0  0  0
 30 68  1  0  0  0
 31 32  2  0  0  0
 31 69  1  0  0  0
 32 33  1  0  0  0
 32 70  1  0  0  0
 33 41  1  0  0  0
 33 34  2  0  0  0
 34 35  1  0  0  0
 35 40  2  0  0  0
 35 36  1  0  0  0
 36 37  2  0  0  0
 36 71  1  0  0  0
 37 38  1  0  0  0
 37 72  1  0  0  0
 38 39  2  0  0  0
 38 73  1  0  0  0
 39 40  1  0  0  0
 39 74  1  0  0  0
 40 41  1  0  0  0
 41 43  1  0  0  0
 42 75  1  0  0  0
M  END
> <s_m_source_file>
dataset_gpcr.csv

> <i_m_source_file_index>
1

> <i_lp_mmshare_version>
61128

> <s_lp_label>
1

> <i_f3d_flags>
0

> <s_epik_input>
W0NIM11PYyhbY0hdMSlbY0hdYzJDKD1PKU4oQyg9TyljKGMyYzEzKVtjSF1bY0hdW2NIXTMpW0NIMl1bQ0hdNFtDSDJdW0NIMl1OKFtDSDJdW0NIMl00KVtDSDJdW0NAQEhdKFtPSF0pW0NIMl1PYyhbY0hdW2NIXVtjSF01KWMoYzU2KWM3YyhbbkhdNilbY0hdW2NIXVtjSF1bY0hdNw==

> <s_epik_cmdline>
J2VwaWtfcHl0aG9uJywgJy1waHQnLCAnMC41JywgJy1waCcsICc3LjInLCAnLXJldGFpbl9pX2xhYicsICctcmV0YWluX3RfbGFiJywgJy10bicsICc4JywgJy1tYScsICcyMDAnLCAnLWltYWUnLCAnPGluZmlsZS5tYWU+JywgJy1vbWFlJywgJzxvdXRmaWxlLm1hZT4n

> <i_lp_orig_ion_str>
1

> <r_epik_Ionization_Penalty>
2.84608

> <r_epik_Ionization_Penalty_Charging>
0

> <r_epik_Ionization_Penalty_Neutral>
2.84608

> <r_epik_State_Penalty>
2.84608

> <r_epik_Charging_Adjusted_Penalty>
2.84608

> <i_epik_Tot_Q>
0

> <i_epik_Tot_abs_Q>
0

> <s_lp_Force_Field>
S-OPLS

> <r_lp_Energy>
68.3862

> <b_lp_Chiralities_Consistent>
1

> <s_lp_Variant>
0-1

$$$$
0
                    3D
 Schrodinger Suite 2023-1.
 76 82  0  0  1  0            999 V2000
   -6.8060   -6.5693   -3.2340 C   0  0  0  0  0  0
   -6.9806   -5.7804   -4.4065 O   0  0  0  0  0  0
   -6.5877   -4.4552   -4.3969 C   0  0  0  0  0  0
   -6.7744   -3.7489   -5.5863 C   0  0  0  0  0  0
   -6.4055   -2.3875   -5.6915 C   0  0  0  0  0  0
   -6.5761   -1.6302   -6.8751 C   0  0  0  0  0  0
   -6.1897   -0.2914   -6.9108 C   0  0  0  0  0  0
   -5.6303    0.3226   -5.7916 C   0  0  0  0  0  0
   -5.4424   -0.3884   -4.5994 C   0  0  0  0  0  0
   -5.8375   -1.7508   -4.5560 C   0  0  0  0  0  0
   -5.6472   -2.4560   -3.3422 C   0  0  0  0  0  0
   -6.0280   -3.8030   -3.2855 C   0  0  0  0  0  0
   -5.0492   -1.7988   -2.1122 C   0  0  0  0  0  0
   -4.8867   -2.4135   -1.0524 O   0  0  0  0  0  0
   -4.6981   -0.4758   -2.2792 N   0  0  0  0  0  0
   -4.8282    0.3128   -3.4031 C   0  0  0  0  0  0
   -4.4745    1.4965   -3.4425 O   0  0  0  0  0  0
   -4.1250    0.1992   -1.0783 C   0  0  0  0  0  0
   -2.5784    0.3240   -1.0692 C   0  0  2  0  0  0
   -1.8656   -1.0203   -0.8156 C   0  0  0  0  0  0
   -0.3347   -0.8709   -0.8709 C   0  0  0  0  0  0
    0.1054    0.1864    0.1720 N   0  3  2  0  0  0
   -0.5772    1.5558   -0.0756 C   0  0  0  0  0  0
   -2.1046    1.3632   -0.0347 C   0  0  0  0  0  0
    1.6525    0.3007    0.1767 C   0  0  0  0  0  0
    2.1967    1.1319    1.3677 C   0  0  2  0  0  0
    3.7315    1.0491    1.4666 C   0  0  0  0  0  0
    4.3024    1.6501    0.3081 O   0  0  0  0  0  0
    5.6699    1.5914    0.1280 C   0  0  0  0  0  0
    6.5901    1.0166    1.0158 C   0  0  0  0  0  0
    7.9529    1.0080    0.7326 C   0  0  0  0  0  0
    8.4670    1.5666   -0.4370 C   0  0  0  0  0  0
    7.5527    2.1450   -1.3239 C   0  0  0  0  0  0
    6.1557    2.1687   -1.0612 C   0  0  0  0  0  0
    5.5344    2.8206   -2.1489 C   0  0  0  0  0  0
    4.1969    3.1358   -2.4454 C   0  0  0  0  0  0
    3.9126    3.8049   -3.6344 C   0  0  0  0  0  0
    4.9268    4.1587   -4.5208 C   0  0  0  0  0  0
    6.2659    3.8623   -4.2631 C   0  0  0  0  0  0
    6.5521    3.1911   -3.0685 C   0  0  0  0  0  0
    7.7545    2.7676   -2.5396 N   0  0  0  0  0  0
    1.6514    0.6737    2.5932 O   0  0  0  0  0  0
    8.6546    2.8958   -2.9790 H   0  0  0  0  0  0
   -7.1560   -7.5835   -3.4263 H   0  0  0  0  0  0
   -7.3834   -6.1747   -2.3965 H   0  0  0  0  0  0
   -5.7552   -6.6335   -2.9473 H   0  0  0  0  0  0
   -7.2062   -4.2443   -6.4444 H   0  0  0  0  0  0
   -7.0079   -2.0956   -7.7497 H   0  0  0  0  0  0
   -6.3249    0.2787   -7.8182 H   0  0  0  0  0  0
   -5.3456    1.3627   -5.8664 H   0  0  0  0  0  0
   -5.8864   -4.3483   -2.3643 H   0  0  0  0  0  0
   -4.5571    1.2001   -1.0154 H   0  0  0  0  0  0
   -4.4542   -0.2631   -0.1460 H   0  0  0  0  0  0
   -2.2487    0.6810   -2.0471 H   0  0  0  0  0  0
   -2.1766   -1.4362    0.1443 H   0  0  0  0  0  0
   -2.1826   -1.7577   -1.5531 H   0  0  0  0  0  0
    0.1658   -1.8056   -0.6137 H   0  0  0  0  0  0
    0.0159   -0.5279   -1.8462 H   0  0  0  0  0  0
   -0.2509    2.2346    0.7115 H   0  0  0  0  0  0
   -0.2267    1.9223   -1.0421 H   0  0  0  0  0  0
   -2.5974    2.3185   -0.2205 H   0  0  0  0  0  0
   -2.4289    1.0743    0.9666 H   0  0  0  0  0  0
    2.0310   -0.7225    0.2117 H   0  0  0  0  0  0
    1.9177    0.7386   -0.7877 H   0  0  0  0  0  0
    1.9331    2.1822    1.2384 H   0  0  0  0  0  0
    4.0827    1.5750    2.3572 H   0  0  0  0  0  0
    4.0427    0.0057    1.5540 H   0  0  0  0  0  0
    6.2609    0.5683    1.9408 H   0  0  0  0  0  0
    8.6316    0.5550    1.4402 H   0  0  0  0  0  0
    9.5280    1.5499   -0.6395 H   0  0  0  0  0  0
    3.3968    2.8705   -1.7707 H   0  0  0  0  0  0
    2.8890    4.0540   -3.8723 H   0  0  0  0  0  0
    4.6695    4.6770   -5.4328 H   0  0  0  0  0  0
    7.0407    4.1436   -4.9610 H   0  0  0  0  0  0
    1.9555   -0.2236    2.7497 H   0  0  0  0  0  0
   -0.1902   -0.1462    1.0795 H   0  0  0  0  0  0
  1  2  1  0  0  0
  1 44  1  0  0  0
  1 45  1  0  0  0
  1 46  1  0  0  0
  2  3  1  0  0  0
  3 12  1  0  0  0
  3  4  2  0  0  0
  4  5  1  0  0  0
  4 47  1  0  0  0
  5 10  2  0  0  0
  5  6  1  0  0  0
  6  7  2  0  0  0
  6 48  1  0  0  0
  7  8  1  0  0  0
  7 49  1  0  0  0
  8  9  2  0  0  0
  8 50  1  0  0  0
  9 16  1  0  0  0
  9 10  1  0  0  0
 10 11  1  0  0  0
 11 12  2  0  0  0
 11 13  1  0  0  0
 12 51  1  0  0  0
 13 14  2  0  0  0
 13 15  1  0  0  0
 15 16  1  0  0  0
 15 18  1  0  0  0
 16 17  2  0  0  0
 18 19  1  0  0  0
 18 52  1  0  0  0
 18 53  1  0  0  0
 19 24  1  0  0  0
 19 20  1  0  0  0
 19 54  1  0  0  0
 20 21  1  0  0  0
 20 55  1  0  0  0
 20 56  1  0  0  0
 21 22  1  0  0  0
 21 57  1  0  0  0
 21 58  1  0  0  0
 22 23  1  0  0  0
 22 25  1  0  0  0
 22 76  1  0  0  0
 23 24  1  0  0  0
 23 59  1  0  0  0
 23 60  1  0  0  0
 24 61  1  0  0  0
 24 62  1  0  0  0
 25 26  1  0  0  0
 25 63  1  0  0  0
 25 64  1  0  0  0
 26 27  1  0  0  0
 26 42  1  0  0  0
 26 65  1  0  0  0
 27 28  1  0  0  0
 27 66  1  0  0  0
 27 67  1  0  0  0
 28 29  1  0  0  0
 29 34  1  0  0  0
 29 30  2  0  0  0
 30 31  1  0  0  0
 30 68  1  0  0  0
 31 32  2  0  0  0
 31 69  1  0  0  0
 32 33  1  0  0  0
 32 70  1  0  0  0
 33 41  1  0  0  0
 33 34  2  0  0  0
 34 35  1  0  0  0
 35 40  2  0  0  0
 35 36  1  0  0  0
 36 37  2  0  0  0
 36 71  1  0  0  0
 37 38  1  0  0  0
 37 72  1  0  0  0
 38 39  2  0  0  0
 38 73  1  0  0  0
 39 40  1  0  0  0
 39 74  1  0  0  0
 40 41  1  0  0  0
 41 43  1  0  0  0
 42 75  1  0  0  0
M  CHG  1  22   1
M  END
> <s_m_source_file>
dataset_gpcr.csv

> <i_m_source_file_index>
1

> <i_lp_mmshare_version>
61128

> <s_lp_label>
1

> <i_f3d_flags>
0

> <s_epik_input>
W0NIM11PYyhbY0hdMSlbY0hdYzJDKD1PKU4oQyg9TyljKGMyYzEzKVtjSF1bY0hdW2NIXTMpW0NIMl1bQ0hdNFtDSDJdW0NIMl1OKFtDSDJdW0NIMl00KVtDSDJdW0NAQEhdKFtPSF0pW0NIMl1PYyhbY0hdW2NIXVtjSF01KWMoYzU2KWM3YyhbbkhdNilbY0hdW2NIXVtjSF1bY0hdNw==

> <s_epik_cmdline>
J2VwaWtfcHl0aG9uJywgJy1waHQnLCAnMC41JywgJy1waCcsICc3LjInLCAnLXJldGFpbl9pX2xhYicsICctcmV0YWluX3RfbGFiJywgJy10bicsICc4JywgJy1tYScsICcyMDAnLCAnLWltYWUnLCAnPGluZmlsZS5tYWU+JywgJy1vbWFlJywgJzxvdXRmaWxlLm1hZT4n

> <i_lp_orig_ion_str>
1

> <r_epik_Ionization_Penalty>
0.00487926

> <r_epik_Ionization_Penalty_Charging>
0.00487836

> <r_epik_Ionization_Penalty_Neutral>
9.06973e-07

> <r_epik_State_Penalty>
0.00487836

> <r_epik_Charging_Adjusted_Penalty>
0.00975671

> <i_epik_Tot_Q>
1

> <i_epik_Tot_abs_Q>
1

> <s_lp_Force_Field>
S-OPLS

> <r_lp_Energy>
77.8922

> <b_lp_Chiralities_Consistent>
1

> <s_lp_Variant>
0-2

$$$$
1
                    3D
 Schrodinger Suite 2023-1.
 41 42  0  0  1  0            999 V2000
   -0.2416    4.0807   -2.6014 C   0  0  0  0  0  0
   -0.7393    3.5547   -1.2379 C   0  0  0  0  0  0
   -0.1881    4.4559   -0.1076 C   0  0  0  0  0  0
   -2.2864    3.5376   -1.2249 C   0  0  0  0  0  0
   -0.2011    2.1932   -1.1182 N   0  0  1  0  0  0
   -0.5413    1.4346    0.0864 C   0  0  0  0  0  0
    0.1283    0.0441    0.0585 C   0  0  1  0  0  0
    1.6682    0.0910    0.1511 C   0  0  0  0  0  0
    2.1957   -1.2239   -0.0098 O   0  0  0  0  0  0
    3.5628   -1.4046    0.0704 C   0  0  0  0  0  0
    4.5210   -0.3954    0.2544 C   0  0  0  0  0  0
    5.8826   -0.6918    0.3203 C   0  0  0  0  0  0
    6.3652   -1.9972    0.2085 C   0  0  0  0  0  0
    5.4122   -3.0022    0.0253 C   0  0  0  0  0  0
    4.0172   -2.7303   -0.0474 C   0  0  0  0  0  0
    3.2988   -3.8878   -0.2302 N   0  0  0  0  0  0
    4.2102   -4.8227   -0.2669 C   0  0  0  0  0  0
    5.4955   -4.3680   -0.1212 N   0  0  0  0  0  0
    4.0078   -6.1657   -0.4306 O   0  0  0  0  0  0
   -0.3676   -0.6884    1.1630 O   0  0  0  0  0  0
   -0.1742   -0.4917   -0.8429 H   0  0  0  0  0  0
    6.3077   -4.9675   -0.1269 H   0  0  0  0  0  0
   -0.5862    5.0988   -2.7881 H   0  0  0  0  0  0
   -0.5938    3.4609   -3.4278 H   0  0  0  0  0  0
    0.8484    4.0910   -2.6566 H   0  0  0  0  0  0
    0.9007    4.4093   -0.0538 H   0  0  0  0  0  0
   -0.5695    4.1680    0.8725 H   0  0  0  0  0  0
   -0.4602    5.5004   -0.2647 H   0  0  0  0  0  0
   -2.6959    4.5232   -1.4502 H   0  0  0  0  0  0
   -2.6865    3.2377   -0.2559 H   0  0  0  0  0  0
   -2.6865    2.8431   -1.9653 H   0  0  0  0  0  0
   -0.4364    1.6589   -1.9426 H   0  0  0  0  0  0
   -0.2187    1.9718    0.9786 H   0  0  0  0  0  0
   -1.6232    1.3066    0.1329 H   0  0  0  0  0  0
    2.0660    0.7358   -0.6344 H   0  0  0  0  0  0
    1.9753    0.5201    1.1075 H   0  0  0  0  0  0
    4.2218    0.6377    0.3482 H   0  0  0  0  0  0
    6.5861    0.1155    0.4628 H   0  0  0  0  0  0
    7.4226   -2.2103    0.2619 H   0  0  0  0  0  0
    3.0711   -6.3586   -0.5124 H   0  0  0  0  0  0
    0.0627   -1.5471    1.1735 H   0  0  0  0  0  0
  1  2  1  0  0  0
  1 23  1  0  0  0
  1 24  1  0  0  0
  1 25  1  0  0  0
  2  3  1  0  0  0
  2  4  1  0  0  0
  2  5  1  0  0  0
  3 26  1  0  0  0
  3 27  1  0  0  0
  3 28  1  0  0  0
  4 29  1  0  0  0
  4 30  1  0  0  0
  4 31  1  0  0  0
  5  6  1  0  0  0
  5 32  1  0  0  0
  6  7  1  0  0  0
  6 33  1  0  0  0
  6 34  1  0  0  0
  7 21  1  0  0  0
  7  8  1  0  0  0
  7 20  1  0  0  0
  8  9  1  0  0  0
  8 35  1  0  0  0
  8 36  1  0  0  0
  9 10  1  0  0  0
 10 15  1  0  0  0
 10 11  2  0  0  0
 11 12  1  0  0  0
 11 37  1  0  0  0
 12 13  2  0  0  0
 12 38  1  0  0  0
 13 14  1  0  0  0
 13 39  1  0  0  0
 14 18  1  0  0  0
 14 15  2  0  0  0
 15 16  1  0  0  0
 16 17  2  0  0  0
 17 18  1  0  0  0
 17 19  1  0  0  0
 18 22  1  0  0  0
 19 40  1  0  0  0
 20 41  1  0  0  0
M  END
> <s_m_source_file>
dataset_gpcr.csv

> <i_m_source_file_index>
2

> <i_lp_mmshare_version>
61128

> <s_lp_label>
2

> <i_f3d_flags>
0

> <s_epik_input>
W0NIM11DKFtDSDNdKShbQ0gzXSlbTkhdW0NIMl1bQ0BIXShbT0hdKVtDSDJdT2MoW2NIXVtjSF1bY0hdMSljKGMxMiluYyhbbkhdMilbT0hd

> <s_epik_cmdline>
J2VwaWtfcHl0aG9uJywgJy1waHQnLCAnMC41JywgJy1waCcsICc3LjInLCAnLXJldGFpbl9pX2xhYicsICctcmV0YWluX3RfbGFiJywgJy10bicsICc4JywgJy1tYScsICcyMDAnLCAnLWltYWUnLCAnPGluZmlsZS5tYWU+JywgJy1vbWFlJywgJzxvdXRmaWxlLm1hZT4n

> <i_lp_orig_ion_str>
1

> <r_epik_Ionization_Penalty>
9.67767

> <r_epik_Ionization_Penalty_Charging>
0

> <r_epik_Ionization_Penalty_Neutral>
9.67767

> <r_epik_State_Penalty>
16.1145

> <r_epik_Charging_Adjusted_Penalty>
16.1145

> <i_epik_Tot_Q>
0

> <i_epik_Tot_abs_Q>
0

> <s_lp_Force_Field>
S-OPLS

> <r_lp_Energy>
16.9426

> <b_lp_Chiralities_Consistent>
1

> <s_lp_Variant>
1-1

$$$$
1
                    3D
 Schrodinger Suite 2023-1.
 42 43  0  0  1  0            999 V2000
   -2.2630    3.1113    0.0249 C   0  0  0  0  0  0
   -2.1107    1.5757    0.0189 C   0  0  0  0  0  0
   -2.7437    0.9697    1.2919 C   0  0  0  0  0  0
   -2.7343    0.9832   -1.2652 C   0  0  0  0  0  0
   -0.5874    1.2980    0.0203 N   0  3  0  0  0  0
   -0.1033   -0.1685    0.0550 C   0  0  0  0  0  0
    1.4381   -0.2407   -0.0370 C   0  0  1  0  0  0
    1.9414   -1.6969   -0.0435 C   0  0  0  0  0  0
    3.3636   -1.7117    0.0629 O   0  0  0  0  0  0
    4.0225   -2.9251    0.0225 C   0  0  0  0  0  0
    3.4055   -4.1907   -0.0289 C   0  0  0  0  0  0
    4.1797   -5.3591   -0.0652 C   0  0  0  0  0  0
    5.5766   -5.2863   -0.0507 C   0  0  0  0  0  0
    6.1694   -4.0270    0.0008 C   0  0  0  0  0  0
    5.4183   -2.8846    0.0366 C   0  0  0  0  0  0
    6.3157   -1.8411    0.0823 N   0  0  0  0  0  0
    7.5926   -2.2823    0.0770 C   0  0  0  0  0  0
    7.4848   -3.6277    0.0273 N   0  0  0  0  0  0
    8.6208   -1.6107    0.1104 O   0  0  0  0  0  0
    1.8918    0.3982   -1.2191 O   0  0  0  0  0  0
    1.8751    0.2685    0.8239 H   0  0  0  0  0  0
    8.2755   -4.2553    0.0138 H   0  0  0  0  0  0
   -3.3144    3.4027    0.0227 H   0  0  0  0  0  0
   -1.8027    3.5706   -0.8517 H   0  0  0  0  0  0
   -1.8084    3.5634    0.9080 H   0  0  0  0  0  0
   -2.2587    1.3309    2.2002 H   0  0  0  0  0  0
   -2.6949   -0.1197    1.2999 H   0  0  0  0  0  0
   -3.7995    1.2345    1.3649 H   0  0  0  0  0  0
   -3.7866    1.2585   -1.3493 H   0  0  0  0  0  0
   -2.6973   -0.1062   -1.2817 H   0  0  0  0  0  0
   -2.2353    1.3456   -2.1655 H   0  0  0  0  0  0
   -0.1998    1.7264   -0.8087 H   0  0  0  0  0  0
   -0.4634   -0.5643    1.0046 H   0  0  0  0  0  0
   -0.5877   -0.6868   -0.7722 H   0  0  0  0  0  0
    1.5104   -2.2322    0.8049 H   0  0  0  0  0  0
    1.6111   -2.2082   -0.9507 H   0  0  0  0  0  0
    2.3304   -4.2876   -0.0397 H   0  0  0  0  0  0
    3.6939   -6.3231   -0.1040 H   0  0  0  0  0  0
    6.1683   -6.1895   -0.0789 H   0  0  0  0  0  0
    2.8444    0.2870   -1.2792 H   0  0  0  0  0  0
    6.0583   -0.8654    0.1157 H   0  0  0  0  0  0
   -0.1876    1.7747    0.8162 H   0  0  0  0  0  0
  1  2  1  0  0  0
  1 23  1  0  0  0
  1 24  1  0  0  0
  1 25  1  0  0  0
  2  3  1  0  0  0
  2  4  1  0  0  0
  2  5  1  0  0  0
  3 26  1  0  0  0
  3 27  1  0  0  0
  3 28  1  0  0  0
  4 29  1  0  0  0
  4 30  1  0  0  0
  4 31  1  0  0  0
  5  6  1  0  0  0
  5 32  1  0  0  0
  5 42  1  0  0  0
  6  7  1  0  0  0
  6 33  1  0  0  0
  6 34  1  0  0  0
  7 21  1  0  0  0
  7  8  1  0  0  0
  7 20  1  0  0  0
  8  9  1  0  0  0
  8 35  1  0  0  0
  8 36  1  0  0  0
  9 10  1  0  0  0
 10 15  1  0  0  0
 10 11  2  0  0  0
 11 12  1  0  0  0
 11 37  1  0  0  0
 12 13  2  0  0  0
 12 38  1  0  0  0
 13 14  1  0  0  0
 13 39  1  0  0  0
 14 18  1  0  0  0
 14 15  2  0  0  0
 15 16  1  0  0  0
 16 17  1  0  0  0
 16 41  1  0  0  0
 17 18  1  0  0  0
 17 19  2  0  0  0
 18 22  1  0  0  0
 20 40  1  0  0  0
M  CHG  1   5   1
M  END
> <s_m_source_file>
dataset_gpcr.csv

> <i_m_source_file_index>
2

> <i_lp_mmshare_version>
61128

> <s_lp_label>
2

> <i_f3d_flags>
0

> <s_epik_input>
W0NIM11DKFtDSDNdKShbQ0gzXSlbTkhdW0NIMl1bQ0BIXShbT0hdKVtDSDJdT2MoW2NIXVtjSF1bY0hdMSljKGMxMiluYyhbbkhdMilbT0hd

> <s_epik_cmdline>
J2VwaWtfcHl0aG9uJywgJy1waHQnLCAnMC41JywgJy1waCcsICc3LjInLCAnLXJldGFpbl9pX2xhYicsICctcmV0YWluX3RfbGFiJywgJy10bicsICc4JywgJy1tYScsICcyMDAnLCAnLWltYWUnLCAnPGluZmlsZS5tYWU+JywgJy1vbWFlJywgJzxvdXRmaWxlLm1hZT4n

> <i_lp_orig_ion_str>
1

> <r_epik_Ionization_Penalty>
0.00252355

> <r_epik_Ionization_Penalty_Charging>
0.00252248

> <r_epik_Ionization_Penalty_Neutral>
1.07078e-06

> <r_epik_State_Penalty>
9.13409e-13

> <r_epik_Charging_Adjusted_Penalty>
0.00252248

> <i_epik_Tot_Q>
1

> <i_epik_Tot_abs_Q>
1

> <s_lp_Force_Field>
S-OPLS

> <r_lp_Energy>
15.4199

> <b_lp_Chiralities_Consistent>
1

> <s_lp_Variant>
1-2

$$$$
2
                    3D
 Schrodinger Suite 2023-1.
 64 66  0  0  1  0            999 V2000
   -0.2529    1.3409    0.2788 C   0  0  0  0  0  0
   -0.0208   -0.1938    0.2560 C   0  0  2  0  0  0
   -0.6166   -0.7873   -1.0572 C   0  0  0  0  0  0
   -2.1536   -0.6445   -1.1578 C   0  0  0  0  0  0
   -2.8912   -1.2960    0.0508 C   0  0  1  0  0  0
   -2.3126   -0.6995    1.3678 C   0  0  0  0  0  0
   -0.7762   -0.8501    1.4527 C   0  0  0  0  0  0
   -4.4650   -1.2764   -0.0685 C   0  0  0  0  0  0
   -4.8951   -2.1324   -1.2892 C   0  0  0  0  0  0
   -5.1353   -1.9579    1.1600 C   0  0  0  0  0  0
   -4.9958    0.0783   -0.3200 N   0  0  0  0  0  0
   -5.2217    1.0977    0.5317 C   0  0  0  0  0  0
   -5.0312    1.0517    1.7460 O   0  0  0  0  0  0
   -5.7638    2.3787   -0.0970 C   0  0  0  0  0  0
   -7.7249    2.3211   -0.4334 Br  0  0  0  0  0  0
    1.4329   -0.3837    0.3410 N   0  0  1  0  0  0
    1.9489   -1.7523    0.3951 C   0  0  0  0  0  0
    3.4938   -1.7584    0.4220 C   0  0  2  0  0  0
    4.0623   -3.1874    0.3193 C   0  0  0  0  0  0
    5.4757   -3.1308    0.1406 O   0  0  0  0  0  0
    6.1783   -4.3122    0.0079 C   0  0  0  0  0  0
    5.6335   -5.6038    0.0366 C   0  0  0  0  0  0
    6.4408   -6.7286   -0.1088 C   0  0  0  0  0  0
    7.8200   -6.6300   -0.2892 C   0  0  0  0  0  0
    8.3671   -5.3430   -0.3182 C   0  0  0  0  0  0
    7.5658   -4.1684   -0.1713 C   0  0  0  0  0  0
    8.4584   -3.0466   -0.2518 C   0  0  0  0  0  0
    9.7290   -3.5481   -0.4387 C   0  0  0  0  0  0
    9.6706   -4.9182   -0.4780 N   0  0  0  0  0  0
    3.9560   -1.1751    1.6292 O   0  0  0  0  0  0
   10.4917   -5.4916   -0.6074 H   0  0  0  0  0  0
   -1.2995    1.6324    0.2130 H   0  0  0  0  0  0
    0.2628    1.8305   -0.5490 H   0  0  0  0  0  0
    0.1427    1.7855    1.1936 H   0  0  0  0  0  0
   -0.1310   -0.3523   -1.9321 H   0  0  0  0  0  0
   -0.4064   -1.8562   -1.1092 H   0  0  0  0  0  0
   -2.4449    0.4001   -1.2686 H   0  0  0  0  0  0
   -2.4708   -1.1108   -2.0894 H   0  0  0  0  0  0
   -2.5817   -2.3435    0.0586 H   0  0  0  0  0  0
   -2.5976    0.3438    1.4822 H   0  0  0  0  0  0
   -2.7496   -1.1974    2.2322 H   0  0  0  0  0  0
   -0.5752   -1.9217    1.4745 H   0  0  0  0  0  0
   -0.4017   -0.4640    2.4022 H   0  0  0  0  0  0
   -4.4790   -3.1398   -1.2437 H   0  0  0  0  0  0
   -4.5846   -1.6964   -2.2387 H   0  0  0  0  0  0
   -5.9802   -2.2370   -1.3456 H   0  0  0  0  0  0
   -4.7700   -2.9769    1.2948 H   0  0  0  0  0  0
   -6.2188   -2.0158    1.0456 H   0  0  0  0  0  0
   -4.9528   -1.4362    2.0975 H   0  0  0  0  0  0
   -5.2038    0.2600   -1.2910 H   0  0  0  0  0  0
   -5.5673    3.2324    0.5525 H   0  0  0  0  0  0
   -5.2704    2.5789   -1.0489 H   0  0  0  0  0  0
    1.8947    0.1341   -0.3931 H   0  0  0  0  0  0
    1.5704   -2.2818    1.2696 H   0  0  0  0  0  0
    1.6204   -2.2969   -0.4894 H   0  0  0  0  0  0
    3.8771   -1.1725   -0.4154 H   0  0  0  0  0  0
    3.8036   -3.7662    1.2088 H   0  0  0  0  0  0
    3.6127   -3.6934   -0.5375 H   0  0  0  0  0  0
    4.5731   -5.7529    0.1727 H   0  0  0  0  0  0
    5.9845   -7.7073   -0.0815 H   0  0  0  0  0  0
    8.4304   -7.5141   -0.4011 H   0  0  0  0  0  0
    8.2055   -1.9988   -0.1819 H   0  0  0  0  0  0
   10.6795   -3.0462   -0.5486 H   0  0  0  0  0  0
    3.6166   -1.6874    2.3666 H   0  0  0  0  0  0
  1  2  1  0  0  0
  1 32  1  0  0  0
  1 33  1  0  0  0
  1 34  1  0  0  0
  2  7  1  0  0  0
  2  3  1  0  0  0
  2 16  1  0  0  0
  3  4  1  0  0  0
  3 35  1  0  0  0
  3 36  1  0  0  0
  4  5  1  0  0  0
  4 37  1  0  0  0
  4 38  1  0  0  0
  5  6  1  0  0  0
  5  8  1  0  0  0
  5 39  1  0  0  0
  6  7  1  0  0  0
  6 40  1  0  0  0
  6 41  1  0  0  0
  7 42  1  0  0  0
  7 43  1  0  0  0
  8  9  1  0  0  0
  8 10  1  0  0  0
  8 11  1  0  0  0
  9 44  1  0  0  0
  9 45  1  0  0  0
  9 46  1  0  0  0
 10 47  1  0  0  0
 10 48  1  0  0  0
 10 49  1  0  0  0
 11 12  1  0  0  0
 11 50  1  0  0  0
 12 13  2  0  0  0
 12 14  1  0  0  0
 14 15  1  0  0  0
 14 51  1  0  0  0
 14 52  1  0  0  0
 16 17  1  0  0  0
 16 53  1  0  0  0
 17 18  1  0  0  0
 17 54  1  0  0  0
 17 55  1  0  0  0
 18 19  1  0  0  0
 18 30  1  0  0  0
 18 56  1  0  0  0
 19 20  1  0  0  0
 19 57  1  0  0  0
 19 58  1  0  0  0
 20 21  1  0  0  0
 21 26  1  0  0  0
 21 22  2  0  0  0
 22 23  1  0  0  0
 22 59  1  0  0  0
 23 24  2  0  0  0
 23 60  1  0  0  0
 24 25  1  0  0  0
 24 61  1  0  0  0
 25 29  1  0  0  0
 25 26  2  0  0  0
 26 27  1  0  0  0
 27 28  2  0  0  0
 27 62  1  0  0  0
 28 29  1  0  0  0
 28 63  1  0  0  0
 29 31  1  0  0  0
 30 64  1  0  0  0
M  END
> <s_m_source_file>
dataset_gpcr.csv

> <i_m_source_file_index>
3

> <i_lp_mmshare_version>
61128

> <s_lp_label>
3

> <i_f3d_flags>
0

> <s_epik_input>
QnJbQ0gyXUMoPU8pW05IXUMoW0NIM10pKFtDSDNdKVtDQEhdKFtDSDJdW0NIMl0xKVtDSDJdW0NIMl1bQ0BdMShbQ0gzXSlbTkhdW0NIMl1bQ0BASF0oW09IXSlbQ0gyXU9jKFtjSF1bY0hdW2NIXTIpYyhjMjMpW2NIXVtjSF1bbkhdMw==

> <s_epik_cmdline>
J2VwaWtfcHl0aG9uJywgJy1waHQnLCAnMC41JywgJy1waCcsICc3LjInLCAnLXJldGFpbl9pX2xhYicsICctcmV0YWluX3RfbGFiJywgJy10bicsICc4JywgJy1tYScsICcyMDAnLCAnLWltYWUnLCAnPGluZmlsZS5tYWU+JywgJy1vbWFlJywgJzxvdXRmaWxlLm1hZT4n

> <i_lp_orig_ion_str>
1

> <r_epik_Ionization_Penalty>
2.88199

> <r_epik_Ionization_Penalty_Charging>
0

> <r_epik_Ionization_Penalty_Neutral>
2.88199

> <r_epik_State_Penalty>
2.88199

> <r_epik_Charging_Adjusted_Penalty>
2.88199

> <i_epik_Tot_Q>
0

> <i_epik_Tot_abs_Q>
0

> <s_lp_Force_Field>
S-OPLS

> <r_lp_Energy>
38.6891

> <b_lp_Chiralities_Consistent>
1

> <s_lp_Variant>
2-1

$$$$
2
                    3D
 Schrodinger Suite 2023-1.
 65 67  0  0  1  0            999 V2000
   -0.5163    1.6793   -0.1792 C   0  0  0  0  0  0
   -0.1465    0.1781   -0.0779 C   0  0  2  0  0  0
   -0.6790   -0.6276   -1.2958 C   0  0  0  0  0  0
   -2.2206   -0.7278   -1.2835 C   0  0  0  0  0  0
   -2.7593   -1.3717    0.0332 C   0  0  1  0  0  0
   -2.2159   -0.5554    1.2478 C   0  0  0  0  0  0
   -0.6735   -0.4517    1.2411 C   0  0  0  0  0  0
   -4.3197   -1.5843    0.0486 C   0  0  0  0  0  0
   -4.7311   -2.5113   -1.1305 C   0  0  0  0  0  0
   -4.7427   -2.2971    1.3640 C   0  0  0  0  0  0
   -4.9843   -0.2715   -0.0668 N   0  0  0  0  0  0
   -6.3019    0.0076   -0.1072 C   0  0  0  0  0  0
   -7.1922   -0.8395   -0.0422 O   0  0  0  0  0  0
   -6.6658    1.4828   -0.2533 C   0  0  0  0  0  0
   -6.4649    2.1597   -2.1144 Br  0  0  0  0  0  0
    1.4042    0.1391   -0.0692 N   0  3  0  0  0  0
    2.1450   -1.2186   -0.1012 C   0  0  0  0  0  0
    3.6781   -1.0340   -0.0012 C   0  0  2  0  0  0
    4.1444   -0.3839    1.3191 C   0  0  0  0  0  0
    5.5601   -0.5016    1.4303 O   0  0  0  0  0  0
    6.1890    0.0351    2.5362 C   0  0  0  0  0  0
    5.5627    0.6985    3.6009 C   0  0  0  0  0  0
    6.3016    1.2038    4.6673 C   0  0  0  0  0  0
    7.6887    1.0760    4.7318 C   0  0  0  0  0  0
    8.3163    0.4124    3.6725 C   0  0  0  0  0  0
    7.5868   -0.1170    2.5633 C   0  0  0  0  0  0
    8.5496   -0.7198    1.6850 C   0  0  0  0  0  0
    9.7906   -0.5482    2.2603 C   0  0  0  0  0  0
    9.6476    0.1276    3.4456 N   0  0  0  0  0  0
    4.1447   -0.2620   -1.0950 O   0  0  0  0  0  0
   10.4347    0.3607    4.0338 H   0  0  0  0  0  0
   -1.5930    1.8445   -0.1884 H   0  0  0  0  0  0
   -0.1230    2.1306   -1.0918 H   0  0  0  0  0  0
   -0.1199    2.2496    0.6627 H   0  0  0  0  0  0
   -0.3206   -0.2030   -2.2351 H   0  0  0  0  0  0
   -0.3034   -1.6508   -1.2742 H   0  0  0  0  0  0
   -2.6759    0.2493   -1.4475 H   0  0  0  0  0  0
   -2.5276   -1.3160   -2.1473 H   0  0  0  0  0  0
   -2.2881   -2.3548    0.1009 H   0  0  0  0  0  0
   -2.6734    0.4339    1.2782 H   0  0  0  0  0  0
   -2.5181   -1.0219    2.1846 H   0  0  0  0  0  0
   -0.2901   -1.4645    1.3650 H   0  0  0  0  0  0
   -0.3167    0.1030    2.1105 H   0  0  0  0  0  0
   -4.1232   -3.4166   -1.1592 H   0  0  0  0  0  0
   -4.6341   -2.0179   -2.0977 H   0  0  0  0  0  0
   -5.7701   -2.8339   -1.0555 H   0  0  0  0  0  0
   -4.1348   -3.1829    1.5525 H   0  0  0  0  0  0
   -5.7812   -2.6291    1.3349 H   0  0  0  0  0  0
   -4.6549   -1.6454    2.2335 H   0  0  0  0  0  0
   -4.3531    0.5132   -0.1334 H   0  0  0  0  0  0
   -7.7012    1.6502    0.0462 H   0  0  0  0  0  0
   -6.0395    2.0987    0.3931 H   0  0  0  0  0  0
    1.7240    0.6706   -0.8669 H   0  0  0  0  0  0
    1.7687   -1.8021    0.7375 H   0  0  0  0  0  0
    1.8683   -1.7157   -1.0304 H   0  0  0  0  0  0
    4.1438   -2.0176   -0.0819 H   0  0  0  0  0  0
    3.8364    0.6630    1.3607 H   0  0  0  0  0  0
    3.6744   -0.8950    2.1616 H   0  0  0  0  0  0
    4.4918    0.8323    3.6160 H   0  0  0  0  0  0
    5.7843    1.7098    5.4694 H   0  0  0  0  0  0
    8.2451    1.4746    5.5674 H   0  0  0  0  0  0
    8.3622   -1.2188    0.7457 H   0  0  0  0  0  0
   10.7731   -0.8501    1.9273 H   0  0  0  0  0  0
    3.9812   -0.7464   -1.9077 H   0  0  0  0  0  0
    1.7115    0.6362    0.7548 H   0  0  0  0  0  0
  1  2  1  0  0  0
  1 32  1  0  0  0
  1 33  1  0  0  0
  1 34  1  0  0  0
  2  7  1  0  0  0
  2  3  1  0  0  0
  2 16  1  0  0  0
  3  4  1  0  0  0
  3 35  1  0  0  0
  3 36  1  0  0  0
  4  5  1  0  0  0
  4 37  1  0  0  0
  4 38  1  0  0  0
  5  6  1  0  0  0
  5  8  1  0  0  0
  5 39  1  0  0  0
  6  7  1  0  0  0
  6 40  1  0  0  0
  6 41  1  0  0  0
  7 42  1  0  0  0
  7 43  1  0  0  0
  8  9  1  0  0  0
  8 10  1  0  0  0
  8 11  1  0  0  0
  9 44  1  0  0  0
  9 45  1  0  0  0
  9 46  1  0  0  0
 10 47  1  0  0  0
 10 48  1  0  0  0
 10 49  1  0  0  0
 11 12  1  0  0  0
 11 50  1  0  0  0
 12 13  2  0  0  0
 12 14  1  0  0  0
 14 15  1  0  0  0
 14 51  1  0  0  0
 14 52  1  0  0  0
 16 17  1  0  0  0
 16 53  1  0  0  0
 16 65  1  0  0  0
 17 18  1  0  0  0
 17 54  1  0  0  0
 17 55  1  0  0  0
 18 19  1  0  0  0
 18 30  1  0  0  0
 18 56  1  0  0  0
 19 20  1  0  0  0
 19 57  1  0  0  0
 19 58  1  0  0  0
 20 21  1  0  0  0
 21 26  1  0  0  0
 21 22  2  0  0  0
 22 23  1  0  0  0
 22 59  1  0  0  0
 23 24  2  0  0  0
 23 60  1  0  0  0
 24 25  1  0  0  0
 24 61  1  0  0  0
 25 29  1  0  0  0
 25 26  2  0  0  0
 26 27  1  0  0  0
 27 28  2  0  0  0
 27 62  1  0  0  0
 28 29  1  0  0  0
 28 63  1  0  0  0
 29 31  1  0  0  0
 30 64  1  0  0  0
M  CHG  1  16   1
M  END
> <s_m_source_file>
dataset_gpcr.csv

> <i_m_source_file_index>
3

> <i_lp_mmshare_version>
61128

> <s_lp_label>
3

> <i_f3d_flags>
0

> <s_epik_input>
QnJbQ0gyXUMoPU8pW05IXUMoW0NIM10pKFtDSDNdKVtDQEhdKFtDSDJdW0NIMl0xKVtDSDJdW0NIMl1bQ0BdMShbQ0gzXSlbTkhdW0NIMl1bQ0BASF0oW09IXSlbQ0gyXU9jKFtjSF1bY0hdW2NIXTIpYyhjMjMpW2NIXVtjSF1bbkhdMw==

> <s_epik_cmdline>
J2VwaWtfcHl0aG9uJywgJy1waHQnLCAnMC41JywgJy1waCcsICc3LjInLCAnLXJldGFpbl9pX2xhYicsICctcmV0YWluX3RfbGFiJywgJy10bicsICc4JywgJy1tYScsICcyMDAnLCAnLWltYWUnLCAnPGluZmlsZS5tYWU+JywgJy1vbWFlJywgJzxvdXRmaWxlLm1hZT4n

> <i_lp_orig_ion_str>
1

> <r_epik_Ionization_Penalty>
0.00459194

> <r_epik_Ionization_Penalty_Charging>
0.00459042

> <r_epik_Ionization_Penalty_Neutral>
1.5217e-06

> <r_epik_State_Penalty>
0.00459042

> <r_epik_Charging_Adjusted_Penalty>
0.00918083

> <i_epik_Tot_Q>
1

> <i_epik_Tot_abs_Q>
1

> <s_lp_Force_Field>
S-OPLS

> <r_lp_Energy>
35.5924

> <b_lp_Chiralities_Consistent>
1

> <s_lp_Variant>
2-2

$$$$
3
                    3D
 Schrodinger Suite 2023-1.
 38 39  0  0  1  0            999 V2000
   -2.4192    2.7795   -0.7650 C   0  0  0  0  0  0
   -1.9899    1.4033   -0.2291 C   0  0  0  0  0  0
   -2.4937    1.1829    1.2127 C   0  0  0  0  0  0
   -0.5324    1.3328   -0.3122 N   0  0  1  0  0  0
    0.0063   -0.0062   -0.0837 C   0  0  0  0  0  0
    1.5428   -0.0229   -0.2449 C   0  0  2  0  0  0
    2.1279   -1.4493   -0.2228 C   0  0  0  0  0  0
    1.7231   -2.1282    0.9648 O   0  0  0  0  0  0
    2.1043   -3.4425    1.1461 C   0  0  0  0  0  0
    2.9304   -4.1870    0.2923 C   0  0  0  0  0  0
    3.2505   -5.5117    0.5770 C   0  0  0  0  0  0
    2.7702   -6.1601    1.7144 C   0  0  0  0  0  0
    1.9468   -5.4196    2.5687 C   0  0  0  0  0  0
    1.6005   -4.0582    2.3056 C   0  0  0  0  0  0
    0.7520   -3.6316    3.3825 C   0  0  0  0  0  0
    0.6102   -4.7025    4.2391 C   0  0  0  0  0  0
    1.3250   -5.7670    3.7511 N   0  0  0  0  0  0
    2.1605    0.7473    0.7712 O   0  0  0  0  0  0
    1.3607   -6.6584    4.2245 H   0  0  0  0  0  0
   -3.5057    2.8736   -0.7692 H   0  0  0  0  0  0
   -2.0781    2.9353   -1.7896 H   0  0  0  0  0  0
   -2.0234    3.5930   -0.1549 H   0  0  0  0  0  0
   -2.4147    0.6408   -0.8843 H   0  0  0  0  0  0
   -3.5729    1.3275    1.2728 H   0  0  0  0  0  0
   -2.0311    1.8813    1.9116 H   0  0  0  0  0  0
   -2.2930    0.1722    1.5678 H   0  0  0  0  0  0
   -0.2229    1.6844   -1.2070 H   0  0  0  0  0  0
   -0.2584   -0.3738    0.9080 H   0  0  0  0  0  0
   -0.4346   -0.6869   -0.8135 H   0  0  0  0  0  0
    1.8071    0.4231   -1.2053 H   0  0  0  0  0  0
    1.7614   -1.9978   -1.0928 H   0  0  0  0  0  0
    3.2172   -1.4116   -0.2894 H   0  0  0  0  0  0
    3.3381   -3.7455   -0.6044 H   0  0  0  0  0  0
    3.8910   -6.0528   -0.1041 H   0  0  0  0  0  0
    3.0285   -7.1889    1.9183 H   0  0  0  0  0  0
    0.2983   -2.6607    3.5171 H   0  0  0  0  0  0
    0.0581   -4.8022    5.1624 H   0  0  0  0  0  0
    1.7414    1.6111    0.7908 H   0  0  0  0  0  0
  1  2  1  0  0  0
  1 20  1  0  0  0
  1 21  1  0  0  0
  1 22  1  0  0  0
  2  3  1  0  0  0
  2  4  1  0  0  0
  2 23  1  0  0  0
  3 24  1  0  0  0
  3 25  1  0  0  0
  3 26  1  0  0  0
  4  5  1  0  0  0
  4 27  1  0  0  0
  5  6  1  0  0  0
  5 28  1  0  0  0
  5 29  1  0  0  0
  6  7  1  0  0  0
  6 18  1  0  0  0
  6 30  1  0  0  0
  7  8  1  0  0  0
  7 31  1  0  0  0
  7 32  1  0  0  0
  8  9  1  0  0  0
  9 14  1  0  0  0
  9 10  2  0  0  0
 10 11  1  0  0  0
 10 33  1  0  0  0
 11 12  2  0  0  0
 11 34  1  0  0  0
 12 13  1  0  0  0
 12 35  1  0  0  0
 13 17  1  0  0  0
 13 14  2  0  0  0
 14 15  1  0  0  0
 15 16  2  0  0  0
 15 36  1  0  0  0
 16 17  1  0  0  0
 16 37  1  0  0  0
 17 19  1  0  0  0
 18 38  1  0  0  0
M  END
> <s_m_source_file>
dataset_gpcr.csv

> <i_m_source_file_index>
4

> <i_lp_mmshare_version>
61128

> <s_lp_label>
4

> <i_f3d_flags>
0

> <s_epik_input>
W0NIM11bQ0hdKFtDSDNdKVtOSF1bQ0gyXVtDQEBIXShbT0hdKVtDSDJdT2MoW2NIXVtjSF1bY0hdMSljKGMxMilbY0hdW2NIXVtuSF0y

> <s_epik_cmdline>
J2VwaWtfcHl0aG9uJywgJy1waHQnLCAnMC41JywgJy1waCcsICc3LjInLCAnLXJldGFpbl9pX2xhYicsICctcmV0YWluX3RfbGFiJywgJy10bicsICc4JywgJy1tYScsICcyMDAnLCAnLWltYWUnLCAnPGluZmlsZS5tYWU+JywgJy1vbWFlJywgJzxvdXRmaWxlLm1hZT4n

> <i_lp_orig_ion_str>
1

> <r_epik_Ionization_Penalty>
2.99256

> <r_epik_Ionization_Penalty_Charging>
0

> <r_epik_Ionization_Penalty_Neutral>
2.99256

> <r_epik_State_Penalty>
2.99256

> <r_epik_Charging_Adjusted_Penalty>
2.99256

> <i_epik_Tot_Q>
0

> <i_epik_Tot_abs_Q>
0

> <s_lp_Force_Field>
S-OPLS

> <r_lp_Energy>
21.4106

> <b_lp_Chiralities_Consistent>
1

> <s_lp_Variant>
3-1

$$$$
3
                    3D
 Schrodinger Suite 2023-1.
 39 40  0  0  1  0            999 V2000
   -2.5694    1.4975   -1.2300 C   0  0  0  0  0  0
   -2.0819    1.6890    0.2193 C   0  0  0  0  0  0
   -2.3685    3.1000    0.7590 C   0  0  0  0  0  0
   -0.5630    1.4410    0.3132 N   0  3  0  0  0  0
   -0.1031   -0.0111    0.0709 C   0  0  0  0  0  0
    1.4127   -0.1627    0.3316 C   0  0  2  0  0  0
    1.8838   -1.6147    0.1245 C   0  0  0  0  0  0
    3.3081   -1.6613    0.1613 O   0  0  0  0  0  0
    3.9386   -2.8748   -0.0313 C   0  0  0  0  0  0
    3.3060   -4.1062   -0.2543 C   0  0  0  0  0  0
    4.0449   -5.2716   -0.4381 C   0  0  0  0  0  0
    5.4391   -5.2746   -0.4110 C   0  0  0  0  0  0
    6.0734   -4.0482   -0.1881 C   0  0  0  0  0  0
    5.3439   -2.8343    0.0051 C   0  0  0  0  0  0
    6.3153   -1.7951    0.2028 C   0  0  0  0  0  0
    7.5609   -2.3811    0.1263 C   0  0  0  0  0  0
    7.4127   -3.7250   -0.1061 N   0  0  0  0  0  0
    1.7289    0.2298    1.6570 O   0  0  0  0  0  0
    8.2014   -4.3491   -0.1974 H   0  0  0  0  0  0
   -3.6350    1.7156   -1.3100 H   0  0  0  0  0  0
   -2.4332    0.4738   -1.5788 H   0  0  0  0  0  0
   -2.0496    2.1611   -1.9227 H   0  0  0  0  0  0
   -2.5214    0.9433    0.8845 H   0  0  0  0  0  0
   -3.4399    3.3044    0.7609 H   0  0  0  0  0  0
   -1.8904    3.8711    0.1527 H   0  0  0  0  0  0
   -2.0178    3.2181    1.7854 H   0  0  0  0  0  0
   -0.0883    2.0533   -0.3349 H   0  0  0  0  0  0
   -0.7078   -0.6391    0.7276 H   0  0  0  0  0  0
   -0.3499   -0.2171   -0.9707 H   0  0  0  0  0  0
    1.9628    0.4768   -0.3611 H   0  0  0  0  0  0
    1.4513   -2.2690    0.8848 H   0  0  0  0  0  0
    1.5363   -1.9723   -0.8468 H   0  0  0  0  0  0
    2.2295   -4.1771   -0.2878 H   0  0  0  0  0  0
    3.5218   -6.2015   -0.6070 H   0  0  0  0  0  0
    5.9957   -6.1889   -0.5563 H   0  0  0  0  0  0
    6.1310   -0.7457    0.3791 H   0  0  0  0  0  0
    8.5501   -1.9562    0.2179 H   0  0  0  0  0  0
    2.6628    0.0604    1.8085 H   0  0  0  0  0  0
   -0.2675    1.6963    1.2453 H   0  0  0  0  0  0
  1  2  1  0  0  0
  1 20  1  0  0  0
  1 21  1  0  0  0
  1 22  1  0  0  0
  2  3  1  0  0  0
  2  4  1  0  0  0
  2 23  1  0  0  0
  3 24  1  0  0  0
  3 25  1  0  0  0
  3 26  1  0  0  0
  4  5  1  0  0  0
  4 27  1  0  0  0
  4 39  1  0  0  0
  5  6  1  0  0  0
  5 28  1  0  0  0
  5 29  1  0  0  0
  6  7  1  0  0  0
  6 18  1  0  0  0
  6 30  1  0  0  0
  7  8  1  0  0  0
  7 31  1  0  0  0
  7 32  1  0  0  0
  8  9  1  0  0  0
  9 14  1  0  0  0
  9 10  2  0  0  0
 10 11  1  0  0  0
 10 33  1  0  0  0
 11 12  2  0  0  0
 11 34  1  0  0  0
 12 13  1  0  0  0
 12 35  1  0  0  0
 13 17  1  0  0  0
 13 14  2  0  0  0
 14 15  1  0  0  0
 15 16  2  0  0  0
 15 36  1  0  0  0
 16 17  1  0  0  0
 16 37  1  0  0  0
 17 19  1  0  0  0
 18 38  1  0  0  0
M  CHG  1   4   1
M  END
> <s_m_source_file>
dataset_gpcr.csv

> <i_m_source_file_index>
4

> <i_lp_mmshare_version>
61128

> <s_lp_label>
4

> <i_f3d_flags>
0

> <s_epik_input>
W0NIM11bQ0hdKFtDSDNdKVtOSF1bQ0gyXVtDQEBIXShbT0hdKVtDSDJdT2MoW2NIXVtjSF1bY0hdMSljKGMxMilbY0hdW2NIXVtuSF0y

> <s_epik_cmdline>
J2VwaWtfcHl0aG9uJywgJy1waHQnLCAnMC41JywgJy1waCcsICc3LjInLCAnLXJldGFpbl9pX2xhYicsICctcmV0YWluX3RfbGFiJywgJy10bicsICc4JywgJy1tYScsICcyMDAnLCAnLWltYWUnLCAnPGluZmlsZS5tYWU+JywgJy1vbWFlJywgJzxvdXRmaWxlLm1hZT4n

> <i_lp_orig_ion_str>
1

> <r_epik_Ionization_Penalty>
0.00380762

> <r_epik_Ionization_Penalty_Charging>
0.00380638

> <r_epik_Ionization_Penalty_Neutral>
1.2383e-06

> <r_epik_State_Penalty>
0.00380638

> <r_epik_Charging_Adjusted_Penalty>
0.00761276

> <i_epik_Tot_Q>
1

> <i_epik_Tot_abs_Q>
1

> <s_lp_Force_Field>
S-OPLS

> <r_lp_Energy>
21.7418

> <b_lp_Chiralities_Consistent>
1

> <s_lp_Variant>
3-2

$$$$
4
                    3D
 Schrodinger Suite 2023-1.
 65 67  0  0  1  0            999 V2000
   -0.2392    1.3170    0.2842 C   0  0  0  0  0  0
   -0.0174   -0.2193    0.2586 C   0  0  2  0  0  0
   -0.6186   -0.8080   -1.0540 C   0  0  0  0  0  0
   -2.1541   -0.6516   -1.1539 C   0  0  0  0  0  0
   -2.8982   -1.2961    0.0547 C   0  0  1  0  0  0
   -2.3104   -0.7122    1.3735 C   0  0  0  0  0  0
   -0.7750   -0.8738    1.4547 C   0  0  0  0  0  0
   -4.4719   -1.2572   -0.0636 C   0  0  0  0  0  0
   -4.9130   -2.1146   -1.2790 C   0  0  0  0  0  0
   -5.1517   -1.9216    1.1693 C   0  0  0  0  0  0
   -4.9838    0.1034   -0.3234 N   0  0  0  0  0  0
   -5.1908    1.1316    0.5225 C   0  0  0  0  0  0
   -5.0016    1.0888    1.7370 O   0  0  0  0  0  0
   -5.7058    2.4202   -0.1136 C   0  0  0  0  0  0
   -7.6618    2.3903   -0.4805 Br  0  0  0  0  0  0
    1.4349   -0.4188    0.3405 N   0  0  1  0  0  0
    1.9426   -1.7903    0.3960 C   0  0  0  0  0  0
    3.4875   -1.8026    0.4156 C   0  0  2  0  0  0
    4.0517   -3.2319    0.2996 C   0  0  0  0  0  0
    5.4660   -3.1745    0.1295 O   0  0  0  0  0  0
    6.1702   -4.3548   -0.0021 C   0  0  0  0  0  0
    5.6231   -5.6457   -0.0143 C   0  0  0  0  0  0
    6.4345   -6.7686   -0.1529 C   0  0  0  0  0  0
    7.8190   -6.6678   -0.2866 C   0  0  0  0  0  0
    8.3666   -5.3810   -0.2747 C   0  0  0  0  0  0
    7.5626   -4.2101   -0.1340 C   0  0  0  0  0  0
    8.4594   -3.0899   -0.1637 C   0  0  0  0  0  0
    9.7412   -3.5823   -0.3130 C   0  0  0  0  0  0
    9.6741   -4.9523   -0.3811 N   0  0  0  0  0  0
   11.0218   -2.9014   -0.3961 C   0  0  0  0  0  0
   12.0420   -2.3596   -0.4615 N   0  0  0  0  0  0
    3.9563   -1.2292    1.6249 O   0  0  0  0  0  0
   10.4982   -5.5254   -0.4923 H   0  0  0  0  0  0
   -1.2838    1.6160    0.2186 H   0  0  0  0  0  0
    0.2802    1.8047   -0.5425 H   0  0  0  0  0  0
    0.1591    1.7575    1.1998 H   0  0  0  0  0  0
   -0.1293   -0.3771   -1.9290 H   0  0  0  0  0  0
   -0.4175   -1.8784   -1.1062 H   0  0  0  0  0  0
   -2.4347    0.3958   -1.2638 H   0  0  0  0  0  0
   -2.4763   -1.1141   -2.0857 H   0  0  0  0  0  0
   -2.6008   -2.3472    0.0592 H   0  0  0  0  0  0
   -2.5856    0.3328    1.4946 H   0  0  0  0  0  0
   -2.7493   -1.2118    2.2360 H   0  0  0  0  0  0
   -0.5816   -1.9467    1.4735 H   0  0  0  0  0  0
   -0.3954   -0.4926    2.4042 H   0  0  0  0  0  0
   -4.5096   -3.1270   -1.2272 H   0  0  0  0  0  0
   -4.5968   -1.6882   -2.2310 H   0  0  0  0  0  0
   -5.9992   -2.2064   -1.3347 H   0  0  0  0  0  0
   -4.8025   -2.9454    1.3093 H   0  0  0  0  0  0
   -6.2361   -1.9633    1.0561 H   0  0  0  0  0  0
   -4.9599   -1.3972    2.1035 H   0  0  0  0  0  0
   -5.1907    0.2821   -1.2952 H   0  0  0  0  0  0
   -5.5091    3.2704    0.5408 H   0  0  0  0  0  0
   -5.1936    2.6153   -1.0565 H   0  0  0  0  0  0
    1.8974    0.0947   -0.3963 H   0  0  0  0  0  0
    1.5658   -2.3150    1.2741 H   0  0  0  0  0  0
    1.6063   -2.3360   -0.4849 H   0  0  0  0  0  0
    3.8697   -1.2127   -0.4197 H   0  0  0  0  0  0
    3.7884   -3.8192    1.1823 H   0  0  0  0  0  0
    3.6048   -3.7277   -0.5643 H   0  0  0  0  0  0
    4.5586   -5.7956    0.0842 H   0  0  0  0  0  0
    5.9770   -7.7472   -0.1562 H   0  0  0  0  0  0
    8.4332   -7.5501   -0.3926 H   0  0  0  0  0  0
    8.2012   -2.0441   -0.0821 H   0  0  0  0  0  0
    3.6139   -1.7423    2.3602 H   0  0  0  0  0  0
  1  2  1  0  0  0
  1 34  1  0  0  0
  1 35  1  0  0  0
  1 36  1  0  0  0
  2  7  1  0  0  0
  2  3  1  0  0  0
  2 16  1  0  0  0
  3  4  1  0  0  0
  3 37  1  0  0  0
  3 38  1  0  0  0
  4  5  1  0  0  0
  4 39  1  0  0  0
  4 40  1  0  0  0
  5  6  1  0  0  0
  5  8  1  0  0  0
  5 41  1  0  0  0
  6  7  1  0  0  0
  6 42  1  0  0  0
  6 43  1  0  0  0
  7 44  1  0  0  0
  7 45  1  0  0  0
  8  9  1  0  0  0
  8 10  1  0  0  0
  8 11  1  0  0  0
  9 46  1  0  0  0
  9 47  1  0  0  0
  9 48  1  0  0  0
 10 49  1  0  0  0
 10 50  1  0  0  0
 10 51  1  0  0  0
 11 12  1  0  0  0
 11 52  1  0  0  0
 12 13  2  0  0  0
 12 14  1  0  0  0
 14 15  1  0  0  0
 14 53  1  0  0  0
 14 54  1  0  0  0
 16 17  1  0  0  0
 16 55  1  0  0  0
 17 18  1  0  0  0
 17 56  1  0  0  0
 17 57  1  0  0  0
 18 19  1  0  0  0
 18 32  1  0  0  0
 18 58  1  0  0  0
 19 20  1  0  0  0
 19 59  1  0  0  0
 19 60  1  0  0  0
 20 21  1  0  0  0
 21 26  1  0  0  0
 21 22  2  0  0  0
 22 23  1  0  0  0
 22 61  1  0  0  0
 23 24  2  0  0  0
 23 62  1  0  0  0
 24 25  1  0  0  0
 24 63  1  0  0  0
 25 29  1  0  0  0
 25 26  2  0  0  0
 26 27  1  0  0  0
 27 28  2  0  0  0
 27 64  1  0  0  0
 28 29  1  0  0  0
 28 30  1  0  0  0
 29 33  1  0  0  0
 30 31  3  0  0  0
 32 65  1  0  0  0
M  END
> <s_m_source_file>
dataset_gpcr.csv

> <i_m_source_file_index>
5

> <i_lp_mmshare_version>
61128

> <s_lp_label>
5

> <i_f3d_flags>
0

> <s_epik_input>
QnJbQ0gyXUMoPU8pW05IXUMoW0NIM10pKFtDSDNdKVtDQEhdKFtDSDJdW0NIMl0xKVtDSDJdW0NIMl1bQ0BdMShbQ0gzXSlbTkhdW0NIMl1bQ0BASF0oW09IXSlbQ0gyXU9jKFtjSF1bY0hdW2NIXTIpYyhjMjMpW2NIXWMoW25IXTMpQyNO

> <s_epik_cmdline>
J2VwaWtfcHl0aG9uJywgJy1waHQnLCAnMC41JywgJy1waCcsICc3LjInLCAnLXJldGFpbl9pX2xhYicsICctcmV0YWluX3RfbGFiJywgJy10bicsICc4JywgJy1tYScsICcyMDAnLCAnLWltYWUnLCAnPGluZmlsZS5tYWU+JywgJy1vbWFlJywgJzxvdXRmaWxlLm1hZT4n

> <i_lp_orig_ion_str>
1

> <r_epik_Ionization_Penalty>
2.88249

> <r_epik_Ionization_Penalty_Charging>
0

> <r_epik_Ionization_Penalty_Neutral>
2.88249

> <r_epik_State_Penalty>
2.88199

> <r_epik_Charging_Adjusted_Penalty>
2.88199

> <i_epik_Tot_Q>
0

> <i_epik_Tot_abs_Q>
0

> <s_lp_Force_Field>
S-OPLS

> <r_lp_Energy>
37.1255

> <b_lp_Chiralities_Consistent>
1

> <s_lp_Variant>
4-1

$$$$
4
                    3D
 Schrodinger Suite 2023-1.
 66 68  0  0  1  0            999 V2000
   -0.5256    1.6871   -0.1811 C   0  0  0  0  0  0
   -0.1479    0.1882   -0.0749 C   0  0  2  0  0  0
   -0.6744   -0.6240   -1.2911 C   0  0  0  0  0  0
   -2.2157   -0.7308   -1.2804 C   0  0  0  0  0  0
   -2.7535   -1.3743    0.0369 C   0  0  1  0  0  0
   -2.2153   -0.5526    1.2500 C   0  0  0  0  0  0
   -0.6732   -0.4411    1.2449 C   0  0  0  0  0  0
   -4.3130   -1.5942    0.0502 C   0  0  0  0  0  0
   -4.7165   -2.5289   -1.1256 C   0  0  0  0  0  0
   -4.7360   -2.3033    1.3677 C   0  0  0  0  0  0
   -4.9842   -0.2853   -0.0727 N   0  0  0  0  0  0
   -6.3032   -0.0135   -0.1155 C   0  0  0  0  0  0
   -7.1888   -0.8651   -0.0464 O   0  0  0  0  0  0
   -6.6752    1.4587   -0.2704 C   0  0  0  0  0  0
   -6.4819    2.1232   -2.1368 Br  0  0  0  0  0  0
    1.4029    0.1586   -0.0619 N   0  3  0  0  0  0
    2.1522   -1.1938   -0.1069 C   0  0  0  0  0  0
    3.6842   -1.0011   -0.0022 C   0  0  2  0  0  0
    4.1441   -0.3656    1.3273 C   0  0  0  0  0  0
    5.5612   -0.4670    1.4353 O   0  0  0  0  0  0
    6.1839    0.0615    2.5484 C   0  0  0  0  0  0
    5.5503    0.6967    3.6259 C   0  0  0  0  0  0
    6.2843    1.1927    4.6998 C   0  0  0  0  0  0
    7.6734    1.0841    4.7586 C   0  0  0  0  0  0
    8.3073    0.4501    3.6851 C   0  0  0  0  0  0
    7.5837   -0.0687    2.5695 C   0  0  0  0  0  0
    8.5543   -0.6389    1.6790 C   0  0  0  0  0  0
    9.8002   -0.4632    2.2486 C   0  0  0  0  0  0
    9.6412    0.1886    3.4468 N   0  0  0  0  0  0
   11.1237   -0.8436    1.7859 C   0  0  0  0  0  0
   12.1779   -1.1467    1.4177 N   0  0  0  0  0  0
    4.1480   -0.2111   -1.0845 O   0  0  0  0  0  0
   10.4255    0.4229    4.0381 H   0  0  0  0  0  0
   -1.6032    1.8468   -0.1930 H   0  0  0  0  0  0
   -0.1331    2.1380   -1.0942 H   0  0  0  0  0  0
   -0.1344    2.2619    0.6602 H   0  0  0  0  0  0
   -0.3160   -0.2010   -2.2312 H   0  0  0  0  0  0
   -0.2943   -1.6456   -1.2655 H   0  0  0  0  0  0
   -2.6750    0.2439   -1.4467 H   0  0  0  0  0  0
   -2.5192   -1.3218   -2.1437 H   0  0  0  0  0  0
   -2.2781   -2.3552    0.1079 H   0  0  0  0  0  0
   -2.6778    0.4345    1.2772 H   0  0  0  0  0  0
   -2.5170   -1.0177    2.1876 H   0  0  0  0  0  0
   -0.2832   -1.4511    1.3720 H   0  0  0  0  0  0
   -0.3201    0.1178    2.1132 H   0  0  0  0  0  0
   -4.1029   -3.4304   -1.1486 H   0  0  0  0  0  0
   -4.6198   -2.0395   -2.0947 H   0  0  0  0  0  0
   -5.7539   -2.8573   -1.0521 H   0  0  0  0  0  0
   -4.1256   -3.1863    1.5605 H   0  0  0  0  0  0
   -5.7732   -2.6389    1.3383 H   0  0  0  0  0  0
   -4.6521   -1.6478    2.2346 H   0  0  0  0  0  0
   -4.3576    0.5028   -0.1424 H   0  0  0  0  0  0
   -7.7109    1.6226    0.0301 H   0  0  0  0  0  0
   -6.0504    2.0827    0.3700 H   0  0  0  0  0  0
    1.7213    0.7006   -0.8529 H   0  0  0  0  0  0
    1.7760   -1.7881    0.7243 H   0  0  0  0  0  0
    1.8807   -1.6822   -1.0423 H   0  0  0  0  0  0
    4.1562   -1.9806   -0.0954 H   0  0  0  0  0  0
    3.8239    0.6768    1.3852 H   0  0  0  0  0  0
    3.6809   -0.8954    2.1620 H   0  0  0  0  0  0
    4.4775    0.8139    3.6455 H   0  0  0  0  0  0
    5.7616    1.6762    5.5123 H   0  0  0  0  0  0
    8.2262    1.4751    5.6002 H   0  0  0  0  0  0
    8.3676   -1.1224    0.7311 H   0  0  0  0  0  0
    3.9844   -0.6828   -1.9048 H   0  0  0  0  0  0
    1.7045    0.6488    0.7684 H   0  0  0  0  0  0
  1  2  1  0  0  0
  1 34  1  0  0  0
  1 35  1  0  0  0
  1 36  1  0  0  0
  2  7  1  0  0  0
  2  3  1  0  0  0
  2 16  1  0  0  0
  3  4  1  0  0  0
  3 37  1  0  0  0
  3 38  1  0  0  0
  4  5  1  0  0  0
  4 39  1  0  0  0
  4 40  1  0  0  0
  5  6  1  0  0  0
  5  8  1  0  0  0
  5 41  1  0  0  0
  6  7  1  0  0  0
  6 42  1  0  0  0
  6 43  1  0  0  0
  7 44  1  0  0  0
  7 45  1  0  0  0
  8  9  1  0  0  0
  8 10  1  0  0  0
  8 11  1  0  0  0
  9 46  1  0  0  0
  9 47  1  0  0  0
  9 48  1  0  0  0
 10 49  1  0  0  0
 10 50  1  0  0  0
 10 51  1  0  0  0
 11 12  1  0  0  0
 11 52  1  0  0  0
 12 13  2  0  0  0
 12 14  1  0  0  0
 14 15  1  0  0  0
 14 53  1  0  0  0
 14 54  1  0  0  0
 16 17  1  0  0  0
 16 55  1  0  0  0
 16 66  1  0  0  0
 17 18  1  0  0  0
 17 56  1  0  0  0
 17 57  1  0  0  0
 18 19  1  0  0  0
 18 32  1  0  0  0
 18 58  1  0  0  0
 19 20  1  0  0  0
 19 59  1  0  0  0
 19 60  1  0  0  0
 20 21  1  0  0  0
 21 26  1  0  0  0
 21 22  2  0  0  0
 22 23  1  0  0  0
 22 61  1  0  0  0
 23 24  2  0  0  0
 23 62  1  0  0  0
 24 25  1  0  0  0
 24 63  1  0  0  0
 25 29  1  0  0  0
 25 26  2  0  0  0
 26 27  1  0  0  0
 27 28  2  0  0  0
 27 64  1  0  0  0
 28 29  1  0  0  0
 28 30  1  0  0  0
 29 33  1  0  0  0
 30 31  3  0  0  0
 32 65  1  0  0  0
M  CHG  1  16   1
M  END
> <s_m_source_file>
dataset_gpcr.csv

> <i_m_source_file_index>
5

> <i_lp_mmshare_version>
61128

> <s_lp_label>
5

> <i_f3d_flags>
0

> <s_epik_input>
QnJbQ0gyXUMoPU8pW05IXUMoW0NIM10pKFtDSDNdKVtDQEhdKFtDSDJdW0NIMl0xKVtDSDJdW0NIMl1bQ0BdMShbQ0gzXSlbTkhdW0NIMl1bQ0BASF0oW09IXSlbQ0gyXU9jKFtjSF1bY0hdW2NIXTIpYyhjMjMpW2NIXWMoW25IXTMpQyNO

> <s_epik_cmdline>
J2VwaWtfcHl0aG9uJywgJy1waHQnLCAnMC41JywgJy1waCcsICc3LjInLCAnLXJldGFpbl9pX2xhYicsICctcmV0YWluX3RfbGFiJywgJy10bicsICc4JywgJy1tYScsICcyMDAnLCAnLWltYWUnLCAnPGluZmlsZS5tYWU+JywgJy1vbWFlJywgJzxvdXRmaWxlLm1hZT4n

> <i_lp_orig_ion_str>
1

> <r_epik_Ionization_Penalty>
0.00517247

> <r_epik_Ionization_Penalty_Charging>
0.00459042

> <r_epik_Ionization_Penalty_Neutral>
0.000582056

> <r_epik_State_Penalty>
0.00459042

> <r_epik_Charging_Adjusted_Penalty>
0.00918083

> <i_epik_Tot_Q>
1

> <i_epik_Tot_abs_Q>
1

> <s_lp_Force_Field>
S-OPLS

> <r_lp_Energy>
34.9843

> <b_lp_Chiralities_Consistent>
1

> <s_lp_Variant>
4-2

$$$$
5
                    3D
 Schrodinger Suite 2023-1.
 56 59  0  0  1  0            999 V2000
    1.2424    3.9786   -4.4821 C   0  0  0  0  0  0
    0.7615    3.3899   -3.2786 O   0  0  0  0  0  0
    0.0867    4.1735   -2.3587 C   0  0  0  0  0  0
   -0.1594    5.5467   -2.5376 C   0  0  0  0  0  0
   -0.8452    6.2778   -1.5705 C   0  0  0  0  0  0
   -1.2970    5.6491   -0.4149 C   0  0  0  0  0  0
   -1.0624    4.2894   -0.2251 C   0  0  0  0  0  0
   -0.3678    3.5394   -1.1911 C   0  0  0  0  0  0
   -0.0972    2.1880   -1.0638 O   0  0  0  0  0  0
   -0.5344    1.4851    0.0976 C   0  0  0  0  0  0
   -0.0792    0.0195    0.0142 C   0  0  0  0  0  0
    1.3668   -0.0717    0.1727 N   0  0  2  0  0  0
    1.8084   -1.4619    0.1503 C   0  0  0  0  0  0
    3.3425   -1.5707    0.2966 C   0  0  2  0  0  0
    3.8265   -3.0252    0.1405 C   0  0  0  0  0  0
    5.2501   -3.0524    0.0741 O   0  0  0  0  0  0
    5.8910   -4.2700   -0.0394 C   0  0  0  0  0  0
    5.2650   -5.5226   -0.1099 C   0  0  0  0  0  0
    6.0098   -6.6931   -0.2225 C   0  0  0  0  0  0
    7.4032   -6.6794   -0.2711 C   0  0  0  0  0  0
    8.0321   -5.4317   -0.2026 C   0  0  0  0  0  0
    7.2979   -4.2198   -0.0873 C   0  0  0  0  0  0
    8.2342   -3.1634   -0.0439 C   0  0  0  0  0  0
    8.1063   -1.7676    0.0629 C   0  0  0  0  0  0
    9.2606   -0.9869    0.0782 C   0  0  0  0  0  0
   10.5231   -1.5678   -0.0099 C   0  0  0  0  0  0
   10.6916   -2.9488   -0.1169 C   0  0  0  0  0  0
    9.5325   -3.7336   -0.1326 C   0  0  0  0  0  0
    9.3723   -5.1011   -0.2271 N   0  0  0  0  0  0
    3.7368   -1.1021    1.5756 O   0  0  0  0  0  0
   10.1286   -5.7658   -0.3030 H   0  0  0  0  0  0
    1.7406    3.2162   -5.0810 H   0  0  0  0  0  0
    1.9701    4.7657   -4.2790 H   0  0  0  0  0  0
    0.4275    4.3880   -5.0811 H   0  0  0  0  0  0
    0.1746    6.0660   -3.4228 H   0  0  0  0  0  0
   -1.0266    7.3323   -1.7182 H   0  0  0  0  0  0
   -1.8301    6.2155    0.3345 H   0  0  0  0  0  0
   -1.4288    3.8349    0.6826 H   0  0  0  0  0  0
   -0.1430    1.9494    1.0053 H   0  0  0  0  0  0
   -1.6237    1.5172    0.1531 H   0  0  0  0  0  0
   -0.5666   -0.5489    0.8079 H   0  0  0  0  0  0
   -0.3851   -0.4100   -0.9412 H   0  0  0  0  0  0
    1.6408    0.3630    1.0423 H   0  0  0  0  0  0
    1.3172   -2.0326    0.9404 H   0  0  0  0  0  0
    1.5122   -1.9035   -0.8029 H   0  0  0  0  0  0
    3.8296   -0.9590   -0.4652 H   0  0  0  0  0  0
    3.4600   -3.6372    0.9677 H   0  0  0  0  0  0
    3.4183   -3.4475   -0.7799 H   0  0  0  0  0  0
    4.1894   -5.6054   -0.0781 H   0  0  0  0  0  0
    5.4926   -7.6400   -0.2735 H   0  0  0  0  0  0
    7.9639   -7.5985   -0.3581 H   0  0  0  0  0  0
    7.1357   -1.2989    0.1329 H   0  0  0  0  0  0
    9.1746    0.0865    0.1599 H   0  0  0  0  0  0
   11.3959   -0.9315    0.0052 H   0  0  0  0  0  0
   11.6779   -3.3840   -0.1840 H   0  0  0  0  0  0
    3.4756   -0.1819    1.6552 H   0  0  0  0  0  0
  1  2  1  0  0  0
  1 32  1  0  0  0
  1 33  1  0  0  0
  1 34  1  0  0  0
  2  3  1  0  0  0
  3  8  1  0  0  0
  3  4  2  0  0  0
  4  5  1  0  0  0
  4 35  1  0  0  0
  5  6  2  0  0  0
  5 36  1  0  0  0
  6  7  1  0  0  0
  6 37  1  0  0  0
  7  8  2  0  0  0
  7 38  1  0  0  0
  8  9  1  0  0  0
  9 10  1  0  0  0
 10 11  1  0  0  0
 10 39  1  0  0  0
 10 40  1  0  0  0
 11 12  1  0  0  0
 11 41  1  0  0  0
 11 42  1  0  0  0
 12 13  1  0  0  0
 12 43  1  0  0  0
 13 14  1  0  0  0
 13 44  1  0  0  0
 13 45  1  0  0  0
 14 15  1  0  0  0
 14 30  1  0  0  0
 14 46  1  0  0  0
 15 16  1  0  0  0
 15 47  1  0  0  0
 15 48  1  0  0  0
 16 17  1  0  0  0
 17 22  1  0  0  0
 17 18  2  0  0  0
 18 19  1  0  0  0
 18 49  1  0  0  0
 19 20  2  0  0  0
 19 50  1  0  0  0
 20 21  1  0  0  0
 20 51  1  0  0  0
 21 29  1  0  0  0
 21 22  2  0  0  0
 22 23  1  0  0  0
 23 28  2  0  0  0
 23 24  1  0  0  0
 24 25  2  0  0  0
 24 52  1  0  0  0
 25 26  1  0  0  0
 25 53  1  0  0  0
 26 27  2  0  0  0
 26 54  1  0  0  0
 27 28  1  0  0  0
 27 55  1  0  0  0
 28 29  1  0  0  0
 29 31  1  0  0  0
 30 56  1  0  0  0
M  END
> <s_m_source_file>
dataset_gpcr.csv

> <i_m_source_file_index>
6

> <i_lp_mmshare_version>
61128

> <s_lp_label>
6

> <i_f3d_flags>
0

> <s_epik_input>
W0NIM11PYzFbY0hdW2NIXVtjSF1bY0hdYzFPW0NIMl1bQ0gyXVtOSF1bQ0gyXVtDQEBIXShbT0hdKVtDSDJdT2MoW2NIXVtjSF1bY0hdMiljKGMyMyljNGMoW25IXTMpW2NIXVtjSF1bY0hdW2NIXTQ=

> <s_epik_cmdline>
J2VwaWtfcHl0aG9uJywgJy1waHQnLCAnMC41JywgJy1waCcsICc3LjInLCAnLXJldGFpbl9pX2xhYicsICctcmV0YWluX3RfbGFiJywgJy10bicsICc4JywgJy1tYScsICcyMDAnLCAnLWltYWUnLCAnPGluZmlsZS5tYWU+JywgJy1vbWFlJywgJzxvdXRmaWxlLm1hZT4n

> <i_lp_orig_ion_str>
1

> <r_lp_tautomer_probability>
1

> <r_epik_Ionization_Penalty>
1.24017

> <r_epik_Ionization_Penalty_Charging>
0

> <r_epik_Ionization_Penalty_Neutral>
1.24017

> <r_epik_State_Penalty>
1.24017

> <r_epik_Charging_Adjusted_Penalty>
1.24017

> <i_epik_Tot_Q>
0

> <i_epik_Tot_abs_Q>
0

> <s_lp_Force_Field>
S-OPLS

> <r_lp_Energy>
44.3121

> <b_lp_Chiralities_Consistent>
1

> <s_lp_Variant>
5-1

$$$$
5
                    3D
 Schrodinger Suite 2023-1.
 57 60  0  0  1  0            999 V2000
    1.3676    3.8637    4.2965 C   0  0  0  0  0  0
    0.8236    3.3264    3.0955 O   0  0  0  0  0  0
    0.1137    4.1514    2.2404 C   0  0  0  0  0  0
   -0.1093    5.5187    2.4832 C   0  0  0  0  0  0
   -0.8315    6.2925    1.5780 C   0  0  0  0  0  0
   -1.3397    5.7141    0.4193 C   0  0  0  0  0  0
   -1.1276    4.3609    0.1661 C   0  0  0  0  0  0
   -0.4014    3.5673    1.0720 C   0  0  0  0  0  0
   -0.1558    2.2184    0.8845 O   0  0  0  0  0  0
   -0.6448    1.5639   -0.2852 C   0  0  0  0  0  0
   -0.2485    0.0782   -0.2639 C   0  0  0  0  0  0
    1.2727   -0.0657   -0.0849 N   0  3  0  0  0  0
    1.7584   -1.5262   -0.0327 C   0  0  0  0  0  0
    3.2937   -1.5942    0.1320 C   0  0  2  0  0  0
    3.7977   -3.0480    0.1973 C   0  0  0  0  0  0
    5.2217   -3.0555    0.1397 O   0  0  0  0  0  0
    5.8852   -4.2663    0.1502 C   0  0  0  0  0  0
    5.2824   -5.5306    0.2128 C   0  0  0  0  0  0
    6.0482   -6.6929    0.2142 C   0  0  0  0  0  0
    7.4408   -6.6591    0.1546 C   0  0  0  0  0  0
    8.0468   -5.3997    0.0928 C   0  0  0  0  0  0
    7.2908   -4.1956    0.0899 C   0  0  0  0  0  0
    8.2080   -3.1237    0.0202 C   0  0  0  0  0  0
    8.0558   -1.7265   -0.0126 C   0  0  0  0  0  0
    9.1956   -0.9282   -0.0889 C   0  0  0  0  0  0
   10.4676   -1.4931   -0.1312 C   0  0  0  0  0  0
   10.6605   -2.8747   -0.0979 C   0  0  0  0  0  0
    9.5160   -3.6770   -0.0220 C   0  0  0  0  0  0
    9.3807   -5.0497    0.0256 N   0  0  0  0  0  0
    3.6932   -0.9231    1.3153 O   0  0  0  0  0  0
   10.1485   -5.7053    0.0121 H   0  0  0  0  0  0
    1.8928    3.0763    4.8370 H   0  0  0  0  0  0
    0.5850    4.2484    4.9523 H   0  0  0  0  0  0
    2.0869    4.6580    4.0909 H   0  0  0  0  0  0
    0.2704    6.0000    3.3714 H   0  0  0  0  0  0
   -0.9970    7.3415    1.7754 H   0  0  0  0  0  0
   -1.8993    6.3141   -0.2834 H   0  0  0  0  0  0
   -1.5376    3.9456   -0.7418 H   0  0  0  0  0  0
   -1.7323    1.6422   -0.3331 H   0  0  0  0  0  0
   -0.2398    2.0390   -1.1810 H   0  0  0  0  0  0
   -0.6952   -0.4532    0.5779 H   0  0  0  0  0  0
   -0.4913   -0.4298   -1.1982 H   0  0  0  0  0  0
    1.7373    0.4077   -0.8470 H   0  0  0  0  0  0
    1.2226   -1.9961    0.7942 H   0  0  0  0  0  0
    1.4319   -1.9595   -0.9793 H   0  0  0  0  0  0
    3.7695   -1.1066   -0.7210 H   0  0  0  0  0  0
    3.4407   -3.5376    1.1062 H   0  0  0  0  0  0
    3.3976   -3.6070   -0.6510 H   0  0  0  0  0  0
    4.2087   -5.6302    0.2605 H   0  0  0  0  0  0
    5.5485   -7.6493    0.2624 H   0  0  0  0  0  0
    8.0180   -7.5720    0.1562 H   0  0  0  0  0  0
    7.0782   -1.2692    0.0193 H   0  0  0  0  0  0
    9.0908    0.1465   -0.1161 H   0  0  0  0  0  0
   11.3286   -0.8437   -0.1916 H   0  0  0  0  0  0
   11.6540   -3.2971   -0.1310 H   0  0  0  0  0  0
    4.6418   -1.0328    1.4220 H   0  0  0  0  0  0
    1.5412    0.3945    0.7745 H   0  0  0  0  0  0
  1  2  1  0  0  0
  1 32  1  0  0  0
  1 33  1  0  0  0
  1 34  1  0  0  0
  2  3  1  0  0  0
  3  8  1  0  0  0
  3  4  2  0  0  0
  4  5  1  0  0  0
  4 35  1  0  0  0
  5  6  2  0  0  0
  5 36  1  0  0  0
  6  7  1  0  0  0
  6 37  1  0  0  0
  7  8  2  0  0  0
  7 38  1  0  0  0
  8  9  1  0  0  0
  9 10  1  0  0  0
 10 11  1  0  0  0
 10 39  1  0  0  0
 10 40  1  0  0  0
 11 12  1  0  0  0
 11 41  1  0  0  0
 11 42  1  0  0  0
 12 13  1  0  0  0
 12 43  1  0  0  0
 12 57  1  0  0  0
 13 14  1  0  0  0
 13 44  1  0  0  0
 13 45  1  0  0  0
 14 15  1  0  0  0
 14 30  1  0  0  0
 14 46  1  0  0  0
 15 16  1  0  0  0
 15 47  1  0  0  0
 15 48  1  0  0  0
 16 17  1  0  0  0
 17 22  1  0  0  0
 17 18  2  0  0  0
 18 19  1  0  0  0
 18 49  1  0  0  0
 19 20  2  0  0  0
 19 50  1  0  0  0
 20 21  1  0  0  0
 20 51  1  0  0  0
 21 29  1  0  0  0
 21 22  2  0  0  0
 22 23  1  0  0  0
 23 28  2  0  0  0
 23 24  1  0  0  0
 24 25  2  0  0  0
 24 52  1  0  0  0
 25 26  1  0  0  0
 25 53  1  0  0  0
 26 27  2  0  0  0
 26 54  1  0  0  0
 27 28  1  0  0  0
 27 55  1  0  0  0
 28 29  1  0  0  0
 29 31  1  0  0  0
 30 56  1  0  0  0
M  CHG  1  12   1
M  END
> <s_m_source_file>
dataset_gpcr.csv

> <i_m_source_file_index>
6

> <i_lp_mmshare_version>
61128

> <s_lp_label>
6

> <i_f3d_flags>
0

> <s_epik_input>
W0NIM11PYzFbY0hdW2NIXVtjSF1bY0hdYzFPW0NIMl1bQ0gyXVtOSF1bQ0gyXVtDQEBIXShbT0hdKVtDSDJdT2MoW2NIXVtjSF1bY0hdMiljKGMyMyljNGMoW25IXTMpW2NIXVtjSF1bY0hdW2NIXTQ=

> <s_epik_cmdline>
J2VwaWtfcHl0aG9uJywgJy1waHQnLCAnMC41JywgJy1waCcsICc3LjInLCAnLXJldGFpbl9pX2xhYicsICctcmV0YWluX3RfbGFiJywgJy10bicsICc4JywgJy1tYScsICcyMDAnLCAnLWltYWUnLCAnPGluZmlsZS5tYWU+JywgJy1vbWFlJywgJzxvdXRmaWxlLm1hZT4n

> <i_lp_orig_ion_str>
1

> <r_lp_tautomer_probability>
1

> <r_epik_Ionization_Penalty>
0.0779666

> <r_epik_Ionization_Penalty_Charging>
0.077963

> <r_epik_Ionization_Penalty_Neutral>
3.59903e-06

> <r_epik_State_Penalty>
0.077963

> <r_epik_Charging_Adjusted_Penalty>
0.155926

> <i_epik_Tot_Q>
1

> <i_epik_Tot_abs_Q>
1

> <s_lp_Force_Field>
S-OPLS

> <r_lp_Energy>
41.3656

> <b_lp_Chiralities_Consistent>
1

> <s_lp_Variant>
5-2

$$$$
